[General]
ned-path = .;../queueinglib

network = exam2002

cmdenv-config-name = exam2002Base

qtenv-default-config = exam2002Base

repeat = 5

sim-time-limit = 10000s

**.vector-recording = false

[Config exam2002Base]
description = "Global scenario"
**.sink.lifeTime.result-recording-modes = +histogram

[Config exam2002_N015]
extends = exam2002Base
**.N=15
[Config exam2002_N020]
extends = exam2002Base
**.N=20
[Config exam2002_N025]
extends = exam2002Base
**.N=25
[Config exam2002_N030]
extends = exam2002Base
**.N=30
[Config exam2002_N035]
extends = exam2002Base
**.N=35
[Config exam2002_N040]
extends = exam2002Base
**.N=40
[Config exam2002_N045]
extends = exam2002Base
**.N=45
[Config exam2002_N050]
extends = exam2002Base
**.N=50
