[General]

ned-path = .;../queueinglib

network = exam

cmdenv-config-name = examBase
qtenv-default-config = examBase

repeat = 5

sim-time-limit = 10000s

**.vector-recording = false

[Config examBase]
description = "Global scenario"
**.sink.lifeTime.result-recording-modes = +histogram 


[Config exam_conf_fl010]
extends = examBase
**.fl=0.1
[Config exam_conf_fl020]
extends = examBase
**.fl=0.2
[Config exam_conf_fl030]
extends = examBase
**.fl=0.3
[Config exam_conf_fl040]
extends = examBase
**.fl=0.4
[Config exam_conf_fl050]
extends = examBase
**.fl=0.5
[Config exam_conf_fl060]
extends = examBase
**.fl=0.6
[Config exam_conf_fl070]
extends = examBase
**.fl=0.7
[Config exam_conf_fl080]
extends = examBase
**.fl=0.8
[Config exam_conf_fl090]
extends = examBase
**.fl=0.9
